// GridLAB-D .glm file for modifying IEEE 123 feeder

#set minimum_timestep=60
#set complex_format="%d+%dj"
#option server
#define houselist="NONE"
#define bat_list="NONE"
#define batinv_list="NONE"

clock {
	timezone EST+5EDT;
	starttime '2017-07-01 00:00:00';
	stoptime '2017-07-01 02:00:00';
}

module residential{
};

module climate;

module tape;

module generators;

module powerflow {
	solver_method NR;
	default_maximum_voltage_error 1e-6;
	NR_iteration_limit 50;
	NR_superLU_procs 1;
}

object climate {
	name tmy_file;
	tmyfile "724940TYA.tmy3";
	interpolate LINEAR;
}


//Line and conductor configurations

object triplex_line_conductor {
	name "c1/0 AA triplex"; 
	resistance 0.97;
	geometric_mean_radius 0.0111;
}

object triplex_line_configuration {
	name triplex_line_config;
	conductor_1 "c1/0 AA triplex";
	conductor_2 "c1/0 AA triplex";
	conductor_N "c1/0 AA triplex";
	insulation_thickness 0.08;
	diameter 0.368;
}

//Line

object triplex_node {
	name node_GLD_0001;
	nominal_voltage 120V;
	phases AS;
	bustype SWING;
}

object triplex_meter {
	name meter_GLD_0001;
	nominal_voltage 120V;
	phases AS;
}

object house {
	name GLD_0001;
	parent meter_GLD_0001;
	floor_area 3003;
	number_of_stories 2;
	heating_setpoint 63;
	cooling_setpoint 68;
	cooling_system_type ELECTRIC;
	heating_system_type RESISTANCE;
	window_wall_ratio 0.13;
	airchange_per_hour 0.35;
}

object triplex_line {
	from node_GLD_0001;
	to meter_GLD_0001;
	phases AS;
	length 30 ft;
	configuration triplex_line_config;
}

object recorder{
	name rec_GLD_0001_power;
	parent meter_GLD_0001;
	property measured_real_power;
	file GLD_0001_power.csv;
	interval 60;
}

object triplex_line {
	name bat_line_GLD_0001;
	from node_GLD_0001;
	to bat_meter_GLD_0001;
	phases AS;
	length 30 ft;
	configuration triplex_line_config;
}

object triplex_meter {
	name bat_meter_GLD_0001;
	nominal_voltage 124.00;
	phases AS;
}

object inverter {
	name inv_0001;
	generator_status ONLINE;
	inverter_type FOUR_QUADRANT;
	four_quadrant_control_mode CONSTANT_PQ;
	parent bat_meter_GLD_0001;
	rated_power 3000.0;
	inverter_efficiency .95;
	Q_Out 0;
}

object battery {
	name b_0001;
	parent inv_0001;
	use_internal_battery_model TRUE;
	battery_type LI_ION;
	power_factor 1.0;
	V_Max 260;
	I_Max 15;
	E_Max 7000;
	power_type DC;
	battery_capacity 7000;
	base_efficiency 0.95;
	state_of_charge 0.5;
	generator_mode SUPPLY_DRIVEN;
}

//----
object triplex_node {
	name node_GLD_0002;
	nominal_voltage 120V;
	phases AS;
	bustype SWING;
}

object triplex_meter {
	name meter_GLD_0002;
	nominal_voltage 120V;
	phases AS;
}

object house {
	name GLD_0002;
	parent meter_GLD_0002;
	floor_area 1745;
	number_of_stories 1;
	heating_setpoint 62;
	cooling_setpoint 67;
	cooling_system_type HEAT_PUMP;
	heating_system_type HEAT_PUMP;
	window_wall_ratio 0.15;
	airchange_per_hour 0.47;
}

object triplex_line {
	from node_GLD_0002;
	to meter_GLD_0002;
	phases AS;
	length 30 ft;
	configuration triplex_line_config;
}

object triplex_line {
	name bat_line_GLD_0002;
	from node_GLD_0002;
	to bat_meter_GLD_0002;
	phases AS;
	length 30 ft;
	configuration triplex_line_config;
}

object triplex_meter {
	name bat_meter_GLD_0002;
	nominal_voltage 124.00;
	phases AS;
}

object inverter {
	name inv_0002;
	generator_status ONLINE;
	inverter_type FOUR_QUADRANT;
	four_quadrant_control_mode CONSTANT_PQ;
	parent bat_meter_GLD_0002;
	rated_power 3000.0;
	inverter_efficiency .95;
	Q_Out 0;
}

object battery {
	name b_0002;
	parent inv_0002;
	use_internal_battery_model TRUE;
	battery_type LI_ION;
	power_factor 1.0;
	V_Max 260;
	I_Max 15;
	E_Max 7000;
	power_type DC;
	battery_capacity 7000;
	base_efficiency 0.95;
	state_of_charge 0.5;
	generator_mode SUPPLY_DRIVEN;
}

//----
object triplex_node {
	name node_GLD_0003;
	nominal_voltage 120V;
	phases AS;
	bustype SWING;
}

object triplex_meter {
	name meter_GLD_0003;
	nominal_voltage 120V;
	phases AS;
}

object house {
	name GLD_0003;
	parent meter_GLD_0003;
	floor_area 3991;
	number_of_stories 2;
	heating_setpoint 68;
	cooling_setpoint 73;
	cooling_system_type ELECTRIC;
	heating_system_type GAS;
	window_wall_ratio 0.15;
	airchange_per_hour 0.35;
}

object triplex_line {
	from node_GLD_0003;
	to meter_GLD_0003;
	phases AS;
	length 30 ft;
	configuration triplex_line_config;
}

object triplex_line {
	name bat_line_GLD_0003;
	from node_GLD_0003;
	to bat_meter_GLD_0003;
	phases AS;
	length 30 ft;
	configuration triplex_line_config;
}

object triplex_meter {
	name bat_meter_GLD_0003;
	nominal_voltage 124.00;
	phases AS;
}

object inverter {
	name inv_0003;
	generator_status ONLINE;
	inverter_type FOUR_QUADRANT;
	four_quadrant_control_mode CONSTANT_PQ;
	parent bat_meter_GLD_0003;
	rated_power 3000.0;
	inverter_efficiency .95;
	Q_Out 0;
}

object battery {
	name b_0003;
	parent inv_0003;
	use_internal_battery_model TRUE;
	battery_type LI_ION;
	power_factor 1.0;
	V_Max 260;
	I_Max 15;
	E_Max 7000;
	power_type DC;
	battery_capacity 7000;
	base_efficiency 0.95;
	state_of_charge 0.5;
	generator_mode SUPPLY_DRIVEN;
}

//----
object triplex_node {
	name node_GLD_0004;
	nominal_voltage 120V;
	phases AS;
	bustype SWING;
}

object triplex_meter {
	name meter_GLD_0004;
	nominal_voltage 120V;
	phases AS;
}

object house {
	name GLD_0004;
	parent meter_GLD_0004;
	floor_area 2456;
	number_of_stories 2;
	heating_setpoint 63;
	cooling_setpoint 68;
	cooling_system_type ELECTRIC;
	heating_system_type RESISTANCE;
	window_wall_ratio 0.14;
	airchange_per_hour 0.38;
}

object triplex_line {
	from node_GLD_0004;
	to meter_GLD_0004;
	phases AS;
	length 30 ft;
	configuration triplex_line_config;
}

object triplex_line {
	name bat_line_GLD_0004;
	from node_GLD_0004;
	to bat_meter_GLD_0004;
	phases AS;
	length 30 ft;
	configuration triplex_line_config;
}

object triplex_meter {
	name bat_meter_GLD_0004;
	nominal_voltage 124.00;
	phases AS;
}

object inverter {
	name inv_0004;
	generator_status ONLINE;
	inverter_type FOUR_QUADRANT;
	four_quadrant_control_mode CONSTANT_PQ;
	parent bat_meter_GLD_0004;
	rated_power 3000.0;
	inverter_efficiency .95;
	Q_Out 0;
}

object battery {
	name b_0004;
	parent inv_0004;
	use_internal_battery_model TRUE;
	battery_type LI_ION;
	power_factor 1.0;
	V_Max 260;
	I_Max 15;
	E_Max 7000;
	power_type DC;
	battery_capacity 7000;
	base_efficiency 0.95;
	state_of_charge 0.5;
	generator_mode SUPPLY_DRIVEN;
}

//----
object triplex_node {
	name node_GLD_0005;
	nominal_voltage 120V;
	phases AS;
	bustype SWING;
}

object triplex_meter {
	name meter_GLD_0005;
	nominal_voltage 120V;
	phases AS;
}

object house {
	name GLD_0005;
	parent meter_GLD_0005;
	floor_area 2255;
	number_of_stories 1;
	heating_setpoint 62;
	cooling_setpoint 67;
	cooling_system_type ELECTRIC;
	heating_system_type GAS;
	window_wall_ratio 0.14;
	airchange_per_hour 0.38;
}

object triplex_line {
	from node_GLD_0005;
	to meter_GLD_0005;
	phases AS;
	length 30 ft;
	configuration triplex_line_config;
}

object triplex_line {
	name bat_line_GLD_0005;
	from node_GLD_0005;
	to bat_meter_GLD_0005;
	phases AS;
	length 30 ft;
	configuration triplex_line_config;
}

object triplex_meter {
	name bat_meter_GLD_0005;
	nominal_voltage 124.00;
	phases AS;
}

object inverter {
	name inv_0005;
	generator_status ONLINE;
	inverter_type FOUR_QUADRANT;
	four_quadrant_control_mode CONSTANT_PQ;
	parent bat_meter_GLD_0005;
	rated_power 3000.0;
	inverter_efficiency .95;
	Q_Out 0;
}

object battery {
	name b_0005;
	parent inv_0005;
	use_internal_battery_model TRUE;
	battery_type LI_ION;
	power_factor 1.0;
	V_Max 260;
	I_Max 15;
	E_Max 7000;
	power_type DC;
	battery_capacity 7000;
	base_efficiency 0.95;
	state_of_charge 0.5;
	generator_mode SUPPLY_DRIVEN;
}

//----
object triplex_node {
	name node_GLD_0006;
	nominal_voltage 120V;
	phases AS;
	bustype SWING;
}

object triplex_meter {
	name meter_GLD_0006;
	nominal_voltage 120V;
	phases AS;
}

object house {
	name GLD_0006;
	parent meter_GLD_0006;
	floor_area 3584;
	number_of_stories 2;
	heating_setpoint 68;
	cooling_setpoint 73;
	cooling_system_type ELECTRIC;
	heating_system_type GAS;
	window_wall_ratio 0.15;
	airchange_per_hour 0.41;
}

object triplex_line {
	from node_GLD_0006;
	to meter_GLD_0006;
	phases AS;
	length 30 ft;
	configuration triplex_line_config;
}

object triplex_line {
	name bat_line_GLD_0006;
	from node_GLD_0006;
	to bat_meter_GLD_0006;
	phases AS;
	length 30 ft;
	configuration triplex_line_config;
}

object triplex_meter {
	name bat_meter_GLD_0006;
	nominal_voltage 124.00;
	phases AS;
}

object inverter {
	name inv_0006;
	generator_status ONLINE;
	inverter_type FOUR_QUADRANT;
	four_quadrant_control_mode CONSTANT_PQ;
	parent bat_meter_GLD_0006;
	rated_power 3000.0;
	inverter_efficiency .95;
	Q_Out 0;
}

object battery {
	name b_0006;
	parent inv_0006;
	use_internal_battery_model TRUE;
	battery_type LI_ION;
	power_factor 1.0;
	V_Max 260;
	I_Max 15;
	E_Max 7000;
	power_type DC;
	battery_capacity 7000;
	base_efficiency 0.95;
	state_of_charge 0.5;
	generator_mode SUPPLY_DRIVEN;
}

//----
object triplex_node {
	name node_GLD_0007;
	nominal_voltage 120V;
	phases AS;
	bustype SWING;
}

object triplex_meter {
	name meter_GLD_0007;
	nominal_voltage 120V;
	phases AS;
}

object house {
	name GLD_0007;
	parent meter_GLD_0007;
	floor_area 3188;
	number_of_stories 2;
	heating_setpoint 63;
	cooling_setpoint 68;
	cooling_system_type ELECTRIC;
	heating_system_type GAS;
	window_wall_ratio 0.16;
	airchange_per_hour 0.35;
}

object triplex_line {
	from node_GLD_0007;
	to meter_GLD_0007;
	phases AS;
	length 30 ft;
	configuration triplex_line_config;
}

object triplex_line {
	name bat_line_GLD_0007;
	from node_GLD_0007;
	to bat_meter_GLD_0007;
	phases AS;
	length 30 ft;
	configuration triplex_line_config;
}

object triplex_meter {
	name bat_meter_GLD_0007;
	nominal_voltage 124.00;
	phases AS;
}

object inverter {
	name inv_0007;
	generator_status ONLINE;
	inverter_type FOUR_QUADRANT;
	four_quadrant_control_mode CONSTANT_PQ;
	parent bat_meter_GLD_0007;
	rated_power 3000.0;
	inverter_efficiency .95;
	Q_Out 0;
}

object battery {
	name b_0007;
	parent inv_0007;
	use_internal_battery_model TRUE;
	battery_type LI_ION;
	power_factor 1.0;
	V_Max 260;
	I_Max 15;
	E_Max 7000;
	power_type DC;
	battery_capacity 7000;
	base_efficiency 0.95;
	state_of_charge 0.5;
	generator_mode SUPPLY_DRIVEN;
}

//----
object triplex_node {
	name node_GLD_0008;
	nominal_voltage 120V;
	phases AS;
	bustype SWING;
}

object triplex_meter {
	name meter_GLD_0008;
	nominal_voltage 120V;
	phases AS;
}

object house {
	name GLD_0008;
	parent meter_GLD_0008;
	floor_area 2357;
	number_of_stories 1;
	heating_setpoint 68;
	cooling_setpoint 73;
	cooling_system_type ELECTRIC;
	heating_system_type GAS;
	window_wall_ratio 0.15;
	airchange_per_hour 0.47;
}

object triplex_line {
	from node_GLD_0008;
	to meter_GLD_0008;
	phases AS;
	length 30 ft;
	configuration triplex_line_config;
}

object triplex_line {
	name bat_line_GLD_0008;
	from node_GLD_0008;
	to bat_meter_GLD_0008;
	phases AS;
	length 30 ft;
	configuration triplex_line_config;
}

object triplex_meter {
	name bat_meter_GLD_0008;
	nominal_voltage 124.00;
	phases AS;
}

object inverter {
	name inv_0008;
	generator_status ONLINE;
	inverter_type FOUR_QUADRANT;
	four_quadrant_control_mode CONSTANT_PQ;
	parent bat_meter_GLD_0008;
	rated_power 3000.0;
	inverter_efficiency .95;
	Q_Out 0;
}

object battery {
	name b_0008;
	parent inv_0008;
	use_internal_battery_model TRUE;
	battery_type LI_ION;
	power_factor 1.0;
	V_Max 260;
	I_Max 15;
	E_Max 7000;
	power_type DC;
	battery_capacity 7000;
	base_efficiency 0.95;
	state_of_charge 0.5;
	generator_mode SUPPLY_DRIVEN;
}

//----
object triplex_node {
	name node_GLD_0009;
	nominal_voltage 120V;
	phases AS;
	bustype SWING;
}

object triplex_meter {
	name meter_GLD_0009;
	nominal_voltage 120V;
	phases AS;
}

object house {
	name GLD_0009;
	parent meter_GLD_0009;
	floor_area 1831;
	number_of_stories 2;
	heating_setpoint 63;
	cooling_setpoint 68;
	cooling_system_type HEAT_PUMP;
	heating_system_type HEAT_PUMP;
	window_wall_ratio 0.14;
	airchange_per_hour 0.44;
}

object triplex_line {
	from node_GLD_0009;
	to meter_GLD_0009;
	phases AS;
	length 30 ft;
	configuration triplex_line_config;
}

object triplex_line {
	name bat_line_GLD_0009;
	from node_GLD_0009;
	to bat_meter_GLD_0009;
	phases AS;
	length 30 ft;
	configuration triplex_line_config;
}

object triplex_meter {
	name bat_meter_GLD_0009;
	nominal_voltage 124.00;
	phases AS;
}

object inverter {
	name inv_0009;
	generator_status ONLINE;
	inverter_type FOUR_QUADRANT;
	four_quadrant_control_mode CONSTANT_PQ;
	parent bat_meter_GLD_0009;
	rated_power 3000.0;
	inverter_efficiency .95;
	Q_Out 0;
}

object battery {
	name b_0009;
	parent inv_0009;
	use_internal_battery_model TRUE;
	battery_type LI_ION;
	power_factor 1.0;
	V_Max 260;
	I_Max 15;
	E_Max 7000;
	power_type DC;
	battery_capacity 7000;
	base_efficiency 0.95;
	state_of_charge 0.5;
	generator_mode SUPPLY_DRIVEN;
}

//----
object triplex_node {
	name node_GLD_0010;
	nominal_voltage 120V;
	phases AS;
	bustype SWING;
}

object triplex_meter {
	name meter_GLD_0010;
	nominal_voltage 120V;
	phases AS;
}

object house {
	name GLD_0010;
	parent meter_GLD_0010;
	floor_area 2673;
	number_of_stories 1;
	heating_setpoint 62;
	cooling_setpoint 67;
	cooling_system_type ELECTRIC;
	heating_system_type RESISTANCE;
	window_wall_ratio 0.15;
	airchange_per_hour 0.38;
}

object triplex_line {
	from node_GLD_0010;
	to meter_GLD_0010;
	phases AS;
	length 30 ft;
	configuration triplex_line_config;
}

object triplex_line {
	name bat_line_GLD_0010;
	from node_GLD_0010;
	to bat_meter_GLD_0010;
	phases AS;
	length 30 ft;
	configuration triplex_line_config;
}

object triplex_meter {
	name bat_meter_GLD_0010;
	nominal_voltage 124.00;
	phases AS;
}

object inverter {
	name inv_0010;
	generator_status ONLINE;
	inverter_type FOUR_QUADRANT;
	four_quadrant_control_mode CONSTANT_PQ;
	parent bat_meter_GLD_0010;
	rated_power 3000.0;
	inverter_efficiency .95;
	Q_Out 0;
}

object battery {
	name b_0010;
	parent inv_0010;
	use_internal_battery_model TRUE;
	battery_type LI_ION;
	power_factor 1.0;
	V_Max 260;
	I_Max 15;
	E_Max 7000;
	power_type DC;
	battery_capacity 7000;
	base_efficiency 0.95;
	state_of_charge 0.5;
	generator_mode SUPPLY_DRIVEN;
}

//----
object triplex_node {
	name node_GLD_0011;
	nominal_voltage 120V;
	phases AS;
	bustype SWING;
}

object triplex_meter {
	name meter_GLD_0011;
	nominal_voltage 120V;
	phases AS;
}

object house {
	name GLD_0011;
	parent meter_GLD_0011;
	floor_area 1122;
	number_of_stories 1;
	heating_setpoint 68;
	cooling_setpoint 73;
	cooling_system_type ELECTRIC;
	heating_system_type RESISTANCE;
	window_wall_ratio 0.15;
	airchange_per_hour 0.64;
}

object triplex_line {
	from node_GLD_0011;
	to meter_GLD_0011;
	phases AS;
	length 30 ft;
	configuration triplex_line_config;
}

object triplex_line {
	name bat_line_GLD_0011;
	from node_GLD_0011;
	to bat_meter_GLD_0011;
	phases AS;
	length 30 ft;
	configuration triplex_line_config;
}

object triplex_meter {
	name bat_meter_GLD_0011;
	nominal_voltage 124.00;
	phases AS;
}

object inverter {
	name inv_0011;
	generator_status ONLINE;
	inverter_type FOUR_QUADRANT;
	four_quadrant_control_mode CONSTANT_PQ;
	parent bat_meter_GLD_0011;
	rated_power 3000.0;
	inverter_efficiency .95;
	Q_Out 0;
}

object battery {
	name b_0011;
	parent inv_0011;
	use_internal_battery_model TRUE;
	battery_type LI_ION;
	power_factor 1.0;
	V_Max 260;
	I_Max 15;
	E_Max 7000;
	power_type DC;
	battery_capacity 7000;
	base_efficiency 0.95;
	state_of_charge 0.5;
	generator_mode SUPPLY_DRIVEN;
}

//----
object triplex_node {
	name node_GLD_0012;
	nominal_voltage 120V;
	phases AS;
	bustype SWING;
}

object triplex_meter {
	name meter_GLD_0012;
	nominal_voltage 120V;
	phases AS;
}

object house {
	name GLD_0012;
	parent meter_GLD_0012;
	floor_area 2735;
	number_of_stories 1;
	heating_setpoint 62;
	cooling_setpoint 67;
	cooling_system_type ELECTRIC;
	heating_system_type GAS;
	window_wall_ratio 0.14;
	airchange_per_hour 0.38;
}

object triplex_line {
	from node_GLD_0012;
	to meter_GLD_0012;
	phases AS;
	length 30 ft;
	configuration triplex_line_config;
}

object triplex_line {
	name bat_line_GLD_0012;
	from node_GLD_0012;
	to bat_meter_GLD_0012;
	phases AS;
	length 30 ft;
	configuration triplex_line_config;
}

object triplex_meter {
	name bat_meter_GLD_0012;
	nominal_voltage 124.00;
	phases AS;
}

object inverter {
	name inv_0012;
	generator_status ONLINE;
	inverter_type FOUR_QUADRANT;
	four_quadrant_control_mode CONSTANT_PQ;
	parent bat_meter_GLD_0012;
	rated_power 3000.0;
	inverter_efficiency .95;
	Q_Out 0;
}

object battery {
	name b_0012;
	parent inv_0012;
	use_internal_battery_model TRUE;
	battery_type LI_ION;
	power_factor 1.0;
	V_Max 260;
	I_Max 15;
	E_Max 7000;
	power_type DC;
	battery_capacity 7000;
	base_efficiency 0.95;
	state_of_charge 0.5;
	generator_mode SUPPLY_DRIVEN;
}

//----
object triplex_node {
	name node_GLD_0013;
	nominal_voltage 120V;
	phases AS;
	bustype SWING;
}

object triplex_meter {
	name meter_GLD_0013;
	nominal_voltage 120V;
	phases AS;
}

object house {
	name GLD_0013;
	parent meter_GLD_0013;
	floor_area 1752;
	number_of_stories 1;
	heating_setpoint 68;
	cooling_setpoint 73;
	cooling_system_type ELECTRIC;
	heating_system_type RESISTANCE;
	window_wall_ratio 0.15;
	airchange_per_hour 0.52;
}

object triplex_line {
	from node_GLD_0013;
	to meter_GLD_0013;
	phases AS;
	length 30 ft;
	configuration triplex_line_config;
}

object triplex_line {
	name bat_line_GLD_0013;
	from node_GLD_0013;
	to bat_meter_GLD_0013;
	phases AS;
	length 30 ft;
	configuration triplex_line_config;
}

object triplex_meter {
	name bat_meter_GLD_0013;
	nominal_voltage 124.00;
	phases AS;
}

object inverter {
	name inv_0013;
	generator_status ONLINE;
	inverter_type FOUR_QUADRANT;
	four_quadrant_control_mode CONSTANT_PQ;
	parent bat_meter_GLD_0013;
	rated_power 3000.0;
	inverter_efficiency .95;
	Q_Out 0;
}

object battery {
	name b_0013;
	parent inv_0013;
	use_internal_battery_model TRUE;
	battery_type LI_ION;
	power_factor 1.0;
	V_Max 260;
	I_Max 15;
	E_Max 7000;
	power_type DC;
	battery_capacity 7000;
	base_efficiency 0.95;
	state_of_charge 0.5;
	generator_mode SUPPLY_DRIVEN;
}

//----
object triplex_node {
	name node_GLD_0014;
	nominal_voltage 120V;
	phases AS;
	bustype SWING;
}

object triplex_meter {
	name meter_GLD_0014;
	nominal_voltage 120V;
	phases AS;
}

object house {
	name GLD_0014;
	parent meter_GLD_0014;
	floor_area 3346;
	number_of_stories 2;
	heating_setpoint 63;
	cooling_setpoint 68;
	cooling_system_type HEAT_PUMP;
	heating_system_type HEAT_PUMP;
	window_wall_ratio 0.15;
	airchange_per_hour 0.32;
}

object triplex_line {
	from node_GLD_0014;
	to meter_GLD_0014;
	phases AS;
	length 30 ft;
	configuration triplex_line_config;
}

object triplex_line {
	name bat_line_GLD_0014;
	from node_GLD_0014;
	to bat_meter_GLD_0014;
	phases AS;
	length 30 ft;
	configuration triplex_line_config;
}

object triplex_meter {
	name bat_meter_GLD_0014;
	nominal_voltage 124.00;
	phases AS;
}

object inverter {
	name inv_0014;
	generator_status ONLINE;
	inverter_type FOUR_QUADRANT;
	four_quadrant_control_mode CONSTANT_PQ;
	parent bat_meter_GLD_0014;
	rated_power 3000.0;
	inverter_efficiency .95;
	Q_Out 0;
}

object battery {
	name b_0014;
	parent inv_0014;
	use_internal_battery_model TRUE;
	battery_type LI_ION;
	power_factor 1.0;
	V_Max 260;
	I_Max 15;
	E_Max 7000;
	power_type DC;
	battery_capacity 7000;
	base_efficiency 0.95;
	state_of_charge 0.5;
	generator_mode SUPPLY_DRIVEN;
}

//----
object triplex_node {
	name node_GLD_0015;
	nominal_voltage 120V;
	phases AS;
	bustype SWING;
}

object triplex_meter {
	name meter_GLD_0015;
	nominal_voltage 120V;
	phases AS;
}

object house {
	name GLD_0015;
	parent meter_GLD_0015;
	floor_area 1680;
	number_of_stories 2;
	heating_setpoint 68;
	cooling_setpoint 73;
	cooling_system_type ELECTRIC;
	heating_system_type GAS;
	window_wall_ratio 0.16;
	airchange_per_hour 0.58;
}

object triplex_line {
	from node_GLD_0015;
	to meter_GLD_0015;
	phases AS;
	length 30 ft;
	configuration triplex_line_config;
}

object triplex_line {
	name bat_line_GLD_0015;
	from node_GLD_0015;
	to bat_meter_GLD_0015;
	phases AS;
	length 30 ft;
	configuration triplex_line_config;
}

object triplex_meter {
	name bat_meter_GLD_0015;
	nominal_voltage 124.00;
	phases AS;
}

object inverter {
	name inv_0015;
	generator_status ONLINE;
	inverter_type FOUR_QUADRANT;
	four_quadrant_control_mode CONSTANT_PQ;
	parent bat_meter_GLD_0015;
	rated_power 3000.0;
	inverter_efficiency .95;
	Q_Out 0;
}

object battery {
	name b_0015;
	parent inv_0015;
	use_internal_battery_model TRUE;
	battery_type LI_ION;
	power_factor 1.0;
	V_Max 260;
	I_Max 15;
	E_Max 7000;
	power_type DC;
	battery_capacity 7000;
	base_efficiency 0.95;
	state_of_charge 0.5;
	generator_mode SUPPLY_DRIVEN;
}

//----
object triplex_node {
	name node_GLD_0016;
	nominal_voltage 120V;
	phases AS;
	bustype SWING;
}

object triplex_meter {
	name meter_GLD_0016;
	nominal_voltage 120V;
	phases AS;
}

object house {
	name GLD_0016;
	parent meter_GLD_0016;
	floor_area 2058;
	number_of_stories 1;
	heating_setpoint 62;
	cooling_setpoint 67;
	cooling_system_type ELECTRIC;
	heating_system_type GAS;
	window_wall_ratio 0.15;
	airchange_per_hour 0.44;
}

object triplex_line {
	from node_GLD_0016;
	to meter_GLD_0016;
	phases AS;
	length 30 ft;
	configuration triplex_line_config;
}

object triplex_line {
	name bat_line_GLD_0016;
	from node_GLD_0016;
	to bat_meter_GLD_0016;
	phases AS;
	length 30 ft;
	configuration triplex_line_config;
}

object triplex_meter {
	name bat_meter_GLD_0016;
	nominal_voltage 124.00;
	phases AS;
}

object inverter {
	name inv_0016;
	generator_status ONLINE;
	inverter_type FOUR_QUADRANT;
	four_quadrant_control_mode CONSTANT_PQ;
	parent bat_meter_GLD_0016;
	rated_power 3000.0;
	inverter_efficiency .95;
	Q_Out 0;
}

object battery {
	name b_0016;
	parent inv_0016;
	use_internal_battery_model TRUE;
	battery_type LI_ION;
	power_factor 1.0;
	V_Max 260;
	I_Max 15;
	E_Max 7000;
	power_type DC;
	battery_capacity 7000;
	base_efficiency 0.95;
	state_of_charge 0.5;
	generator_mode SUPPLY_DRIVEN;
}

//----
object triplex_node {
	name node_GLD_0017;
	nominal_voltage 120V;
	phases AS;
	bustype SWING;
}

object triplex_meter {
	name meter_GLD_0017;
	nominal_voltage 120V;
	phases AS;
}

object house {
	name GLD_0017;
	parent meter_GLD_0017;
	floor_area 1018;
	number_of_stories 1;
	heating_setpoint 68;
	cooling_setpoint 73;
	cooling_system_type ELECTRIC;
	heating_system_type GAS;
	window_wall_ratio 0.16;
	airchange_per_hour 0.64;
}

object triplex_line {
	from node_GLD_0017;
	to meter_GLD_0017;
	phases AS;
	length 30 ft;
	configuration triplex_line_config;
}

object triplex_line {
	name bat_line_GLD_0017;
	from node_GLD_0017;
	to bat_meter_GLD_0017;
	phases AS;
	length 30 ft;
	configuration triplex_line_config;
}

object triplex_meter {
	name bat_meter_GLD_0017;
	nominal_voltage 124.00;
	phases AS;
}

object inverter {
	name inv_0017;
	generator_status ONLINE;
	inverter_type FOUR_QUADRANT;
	four_quadrant_control_mode CONSTANT_PQ;
	parent bat_meter_GLD_0017;
	rated_power 3000.0;
	inverter_efficiency .95;
	Q_Out 0;
}

object battery {
	name b_0017;
	parent inv_0017;
	use_internal_battery_model TRUE;
	battery_type LI_ION;
	power_factor 1.0;
	V_Max 260;
	I_Max 15;
	E_Max 7000;
	power_type DC;
	battery_capacity 7000;
	base_efficiency 0.95;
	state_of_charge 0.5;
	generator_mode SUPPLY_DRIVEN;
}

//----
object triplex_node {
	name node_GLD_0018;
	nominal_voltage 120V;
	phases AS;
	bustype SWING;
}

object triplex_meter {
	name meter_GLD_0018;
	nominal_voltage 120V;
	phases AS;
}

object house {
	name GLD_0018;
	parent meter_GLD_0018;
	floor_area 3628;
	number_of_stories 2;
	heating_setpoint 63;
	cooling_setpoint 68;
	cooling_system_type ELECTRIC;
	heating_system_type GAS;
	window_wall_ratio 0.13;
	airchange_per_hour 0.32;
}

object triplex_line {
	from node_GLD_0018;
	to meter_GLD_0018;
	phases AS;
	length 30 ft;
	configuration triplex_line_config;
}

object triplex_line {
	name bat_line_GLD_0018;
	from node_GLD_0018;
	to bat_meter_GLD_0018;
	phases AS;
	length 30 ft;
	configuration triplex_line_config;
}

object triplex_meter {
	name bat_meter_GLD_0018;
	nominal_voltage 124.00;
	phases AS;
}

object inverter {
	name inv_0018;
	generator_status ONLINE;
	inverter_type FOUR_QUADRANT;
	four_quadrant_control_mode CONSTANT_PQ;
	parent bat_meter_GLD_0018;
	rated_power 3000.0;
	inverter_efficiency .95;
	Q_Out 0;
}

object battery {
	name b_0018;
	parent inv_0018;
	use_internal_battery_model TRUE;
	battery_type LI_ION;
	power_factor 1.0;
	V_Max 260;
	I_Max 15;
	E_Max 7000;
	power_type DC;
	battery_capacity 7000;
	base_efficiency 0.95;
	state_of_charge 0.5;
	generator_mode SUPPLY_DRIVEN;
}

//----
object triplex_node {
	name node_GLD_0019;
	nominal_voltage 120V;
	phases AS;
	bustype SWING;
}

object triplex_meter {
	name meter_GLD_0019;
	nominal_voltage 120V;
	phases AS;
}

object house {
	name GLD_0019;
	parent meter_GLD_0019;
	floor_area 1024;
	number_of_stories 1;
	heating_setpoint 68;
	cooling_setpoint 73;
	cooling_system_type ELECTRIC;
	heating_system_type GAS;
	window_wall_ratio 0.14;
	airchange_per_hour 0.64;
}

object triplex_line {
	from node_GLD_0019;
	to meter_GLD_0019;
	phases AS;
	length 30 ft;
	configuration triplex_line_config;
}

object triplex_line {
	name bat_line_GLD_0019;
	from node_GLD_0019;
	to bat_meter_GLD_0019;
	phases AS;
	length 30 ft;
	configuration triplex_line_config;
}

object triplex_meter {
	name bat_meter_GLD_0019;
	nominal_voltage 124.00;
	phases AS;
}

object inverter {
	name inv_0019;
	generator_status ONLINE;
	inverter_type FOUR_QUADRANT;
	four_quadrant_control_mode CONSTANT_PQ;
	parent bat_meter_GLD_0019;
	rated_power 3000.0;
	inverter_efficiency .95;
	Q_Out 0;
}

object battery {
	name b_0019;
	parent inv_0019;
	use_internal_battery_model TRUE;
	battery_type LI_ION;
	power_factor 1.0;
	V_Max 260;
	I_Max 15;
	E_Max 7000;
	power_type DC;
	battery_capacity 7000;
	base_efficiency 0.95;
	state_of_charge 0.5;
	generator_mode SUPPLY_DRIVEN;
}

//----
object triplex_node {
	name node_GLD_0020;
	nominal_voltage 120V;
	phases AS;
	bustype SWING;
}

object triplex_meter {
	name meter_GLD_0020;
	nominal_voltage 120V;
	phases AS;
}

object house {
	name GLD_0020;
	parent meter_GLD_0020;
	floor_area 1900;
	number_of_stories 2;
	heating_setpoint 63;
	cooling_setpoint 68;
	cooling_system_type ELECTRIC;
	heating_system_type GAS;
	window_wall_ratio 0.15;
	airchange_per_hour 0.44;
}

object triplex_line {
	from node_GLD_0020;
	to meter_GLD_0020;
	phases AS;
	length 30 ft;
	configuration triplex_line_config;
}

object triplex_line {
	name bat_line_GLD_0020;
	from node_GLD_0020;
	to bat_meter_GLD_0020;
	phases AS;
	length 30 ft;
	configuration triplex_line_config;
}

object triplex_meter {
	name bat_meter_GLD_0020;
	nominal_voltage 124.00;
	phases AS;
}

object inverter {
	name inv_0020;
	generator_status ONLINE;
	inverter_type FOUR_QUADRANT;
	four_quadrant_control_mode CONSTANT_PQ;
	parent bat_meter_GLD_0020;
	rated_power 3000.0;
	inverter_efficiency .95;
	Q_Out 0;
}

object battery {
	name b_0020;
	parent inv_0020;
	use_internal_battery_model TRUE;
	battery_type LI_ION;
	power_factor 1.0;
	V_Max 260;
	I_Max 15;
	E_Max 7000;
	power_type DC;
	battery_capacity 7000;
	base_efficiency 0.95;
	state_of_charge 0.5;
	generator_mode SUPPLY_DRIVEN;
}

//----
object triplex_node {
	name node_GLD_0021;
	nominal_voltage 120V;
	phases AS;
	bustype SWING;
}

object triplex_meter {
	name meter_GLD_0021;
	nominal_voltage 120V;
	phases AS;
}

object house {
	name GLD_0021;
	parent meter_GLD_0021;
	floor_area 2799;
	number_of_stories 2;
	heating_setpoint 63;
	cooling_setpoint 68;
	cooling_system_type ELECTRIC;
	heating_system_type GAS;
	window_wall_ratio 0.15;
	airchange_per_hour 0.35;
}

object triplex_line {
	from node_GLD_0021;
	to meter_GLD_0021;
	phases AS;
	length 30 ft;
	configuration triplex_line_config;
}

object triplex_line {
	name bat_line_GLD_0021;
	from node_GLD_0021;
	to bat_meter_GLD_0021;
	phases AS;
	length 30 ft;
	configuration triplex_line_config;
}

object triplex_meter {
	name bat_meter_GLD_0021;
	nominal_voltage 124.00;
	phases AS;
}

object inverter {
	name inv_0021;
	generator_status ONLINE;
	inverter_type FOUR_QUADRANT;
	four_quadrant_control_mode CONSTANT_PQ;
	parent bat_meter_GLD_0021;